38
Ni38
 Ni      6.30445000      1.93201000     -2.23037000
 Ni      4.85996000      5.16445000     -1.15818000
 Ni      6.70744000      1.23898000      0.22006600
 Ni      5.74416000      9.54662000     -0.22006600
 Ni      5.09216000      7.62167000     -1.89751000
 Ni      3.20439000      5.88555000      0.65338600
 Ni      5.28009000      4.53206000      1.28405000
 Ni      6.14715000      8.85359000      2.23037000
 Ni      6.51910000      4.43722000     -2.96845000
 Ni      9.24721000      4.90005000     -0.65338600
 Ni      6.93911000      3.78532000     -0.53140300
 Ni      8.63026000      3.07251000     -2.37730000
 Ni      9.50536000      7.37548000     -1.42336000
 Ni      8.03966000      4.98459000      3.63355000
 Ni      7.59164000      5.62115000      1.15818000
 Ni      8.85878000      5.54893000     -3.13491000
 Ni      7.40243000      8.75335000     -2.04729000
 Ni      4.19082000      3.32801000     -2.88128000
 Ni      9.71249000      4.25973000      1.80483000
 Ni      4.64124000      2.70675000     -0.40732300
 Ni      9.93840000      6.73257000      1.05351000
 Ni      7.17151000      6.25354000     -1.28405000
 Ni      4.41194000      5.80101000     -3.63355000
 Ni      2.51320000      4.05303000     -1.05351000
 Ni      8.26078000      7.45759000      2.88128000
 Ni      5.93250000      6.34838000      2.96845000
 Ni      9.03050000      2.40846000      0.08907010
 Ni      5.04917000      2.03225000      2.04729000
 Ni      3.42110000      8.37714000     -0.08907010
 Ni      7.81036000      8.07885000      0.40732300
 Ni      3.82134000      7.71309000      2.37730000
 Ni      3.59282000      5.23667000      3.13491000
 Ni      6.75212000      6.91106000     -3.75579000
 Ni      5.51249000      7.00028000      0.53140300
 Ni      2.94624000      3.41012000      1.42336000
 Ni      5.69948000      3.87454000      3.75579000
 Ni      2.73911000      6.52587000     -1.80483000
 Ni      7.35944000      3.16393000      1.89751000
