52
 POPC
  C1               53.45431473   44.44504505   17.95720692
  C2               51.05494763   43.94246792   18.18447045
  C3               52.07100527   44.64582953   16.09262988
  N4               52.25055742   43.87183931   17.32830649
  C5               52.49733519   42.44311738   17.08040162
  C6               53.84301051   42.04681555   16.45470556
  OS7              54.90776914   41.62772438   17.31088919
  P8               56.18518606   41.10476840   16.49154184
  OM9              56.10264636   41.65895651   15.12330909
 OM10              57.43361369   40.86527639   17.25020902
 OS11              55.50914493   39.66091514   16.28867625
  C12              55.86611872   38.81853801   17.38666278
  C13              55.05863462   37.52792831   17.46969730
 OS14              55.10499583   36.95393945   18.78049394
  C15              54.11595714   37.22184735   19.67325407
  O16              53.13045933   37.89063721   19.35136568
  C17              54.29742688   36.50246490   20.99433605
  C18              53.73539690   37.42152512   22.07962475
  C19              53.74399090   36.79252732   23.47844022
  C20              53.01215695   35.45584937   23.54015031
  C21              53.30292280   34.64367575   24.80696794
  C22              52.63227546   33.27557944   24.93324555
  C23              53.24564437   32.61866414   26.16966847
  C24              52.81507306   31.18484960   26.25790855
  C25              53.09848554   30.29545112   27.21996258
  C26              52.63621607   28.87072093   27.25090302
  C27              53.22264670   28.00195214   28.36998253
  C28              54.56220714   27.37291899   28.01885419
  C29              54.65925179   25.98472933   28.65140047
  C30              53.58759902   25.06518497   28.05015912
  C31              53.70634031   23.78883575   28.87897719
  C32              52.99662938   22.50894511   28.41757841
  C33              53.51466931   21.96296258   27.08583592
  C34              55.34947891   36.66057017   16.23446215
 OS35              54.50258035   35.53989204   15.95120643
  C36              54.60753217   34.92631953   14.73686828
  O37              55.38314954   35.25090668   13.84218470
  C38              53.36671613   34.04321656   14.62505355
  C39              53.72416024   32.56350097   14.46605624
  C40              53.68585557   31.85705817   15.82361826
  C41              54.25542172   30.43376184   15.74659344
  C42              53.91622291   29.64447403   17.01756411
  C43              54.34794000   28.18227596   16.97636596
  C44              55.79426124   28.19315156   17.47880271
  C45              56.34385682   26.76534479   17.55171118
  C46              57.59042053   26.55251116   18.41030692
  C47              58.08672175   25.12860593   18.68432782
  C48              58.37823721   24.60016469   17.27263746
  C49              58.82917366   23.14842935   17.12693559
  C50              57.90551239   22.19401262   16.37159530
  C51              58.01904843   20.72469557   16.79268509
  C52              58.89225901   19.91377474   15.84147482
