5
SO4(2-)
 S                  0.00000000    0.00000000    0.00000000
 O                  0.00000000    0.00000000    1.67000004
 O                 -0.00000000   -1.57449114   -0.55666668
 O                  1.36354933    0.78724557   -0.55666668
 O                 -1.36354933    0.78724557   -0.55666668

