 22
PEt3
 P                  0.77411167    0.93908628    0.00000000
 C                  1.38078883    1.79703460   -1.48602405
 H                  1.02413441    2.80584461   -1.48602405
 H                  2.45078883    1.79702166   -1.48602419
 C                  0.86744661    1.07107703   -2.74342827
 H                  1.19588317    1.59486033   -3.61674408
 H                  1.25178947    0.07263744   -2.76071851
 H                 -0.20200553    1.04133445   -2.72647284
 C                  1.58017719   -0.68723832    0.13314147
 H                  1.06926441   -1.39066966   -0.49059924
 H                  2.59983880   -0.60671904   -0.18103498
 C                  1.53001448   -1.16683089    1.59569905
 H                  1.95386617   -2.14689639    1.66441129
 H                  2.08820972   -0.49286368    2.21139887
 H                  0.51311419   -1.19395588    1.92747918
 C                  1.16337141    1.93168334    1.47500099
 H                  0.62390995    1.54801668    2.31564434
 H                  0.88119749    2.94963161    1.30453342
 C                  2.67528550    1.85868155    1.75852616
 H                  3.05363867    2.84440501    1.93201431
 H                  2.84706388    1.25327881    2.62390451
 H                  3.17563928    1.42763883    0.91665428